tests/fuzzer/corpus_json/25_state_estimation_sensors.json
{
  "version": "1.0",
  "type": "input",
  "is_batch": false,
  "attributes": {},
  "data": {
    "node": [
      {
        "id": 10,
        "u_rated": 10500.0
      },
      {
        "id": 11,
        "u_rated": 10500.0
      },
      {
        "id": 12,
        "u_rated": 10500.0
      },
      {
        "id": 13,
        "u_rated": 10500.0
      }
    ],
    "source": [
      {
        "id": 1,
        "node": 10,
        "status": 1,
        "u_ref": 1.0,
        "u_ref_angle": 0.0,
        "sk": 1000000000.0,
        "rx_ratio": 0.1,
        "z01_ratio": 1.0
      }
    ],
    "line": [
      {
        "id": 20,
        "from_node": 10,
        "to_node": 11,
        "from_status": 1,
        "to_status": 1,
        "r1": 0.25,
        "x1": 0.2,
        "c1": 1e-08,
        "tan1": 0.0,
        "r0": 0.5,
        "x0": 0.4,
        "c0": 1e-08,
        "tan0": 0.0,
        "i_n": 1000.0
      },
      {
        "id": 21,
        "from_node": 11,
        "to_node": 12,
        "from_status": 1,
        "to_status": 1,
        "r1": 0.25,
        "x1": 0.2,
        "c1": 1e-08,
        "tan1": 0.0,
        "r0": 0.5,
        "x0": 0.4,
        "c0": 1e-08,
        "tan0": 0.0,
        "i_n": 1000.0
      },
      {
        "id": 22,
        "from_node": 12,
        "to_node": 13,
        "from_status": 1,
        "to_status": 1,
        "r1": 0.25,
        "x1": 0.2,
        "c1": 1e-08,
        "tan1": 0.0,
        "r0": 0.5,
        "x0": 0.4,
        "c0": 1e-08,
        "tan0": 0.0,
        "i_n": 1000.0
      },
      {
        "id": 23,
        "from_node": 13,
        "to_node": 10,
        "from_status": 1,
        "to_status": 1,
        "r1": 0.25,
        "x1": 0.2,
        "c1": 1e-08,
        "tan1": 0.0,
        "r0": 0.5,
        "x0": 0.4,
        "c0": 1e-08,
        "tan0": 0.0,
        "i_n": 1000.0
      }
    ],
    "sym_load": [
      {
        "id": 40,
        "node": 11,
        "status": 1,
        "type": 0,
        "p_specified": 100000.0,
        "q_specified": 20000.0
      }
    ],
    "sym_voltage_sensor": [
      {
        "id": 70,
        "measured_object": 10,
        "u_sigma": 100.0,
        "u_measured": 10500.0,
        "u_angle_measured": 0.0
      },
      {
        "id": 71,
        "measured_object": 12,
        "u_sigma": 100.0,
        "u_measured": 10400.0
      }
    ],
    "sym_power_sensor": [
      {
        "id": 72,
        "measured_object": 40,
        "measured_terminal_type": 4,
        "power_sigma": 1000.0,
        "p_measured": 100000.0,
        "q_measured": 20000.0
      },
      {
        "id": 73,
        "measured_object": 20,
        "measured_terminal_type": 0,
        "power_sigma": 1000.0,
        "p_measured": 100000.0,
        "q_measured": 20000.0
      },
      {
        "id": 74,
        "measured_object": 1,
        "measured_terminal_type": 2,
        "power_sigma": 1000.0,
        "p_measured": 100000.0,
        "q_measured": 20000.0
      },
      {
        "id": 75,
        "measured_object": 11,
        "measured_terminal_type": 9,
        "power_sigma": 1000.0,
        "p_measured": -100000.0,
        "q_measured": -20000.0
      }
    ],
    "sym_current_sensor": [
      {
        "id": 76,
        "measured_object": 21,
        "measured_terminal_type": 0,
        "angle_measurement_type": 0,
        "i_sigma": 1.0,
        "i_angle_sigma": 0.1,
        "i_measured": 5.0,
        "i_angle_measured": -0.2
      }
    ]
  }
}
